Version 4
SHEET 1 2812 1756
WIRE 224 -48 176 -48
WIRE 496 -48 224 -48
WIRE 544 -48 496 -48
WIRE 624 -48 624 -128
WIRE 624 -48 544 -48
WIRE 976 -48 624 -48
WIRE 1056 -48 976 -48
WIRE 1056 0 1056 -48
WIRE 1056 0 976 0
WIRE 176 16 176 -48
WIRE 496 16 496 -48
WIRE 928 32 880 32
WIRE 224 64 224 -48
WIRE 224 64 176 64
WIRE 544 64 544 -48
WIRE 544 64 496 64
WIRE 64 96 -176 96
WIRE 128 96 64 96
WIRE 448 96 368 96
WIRE 176 160 176 112
WIRE 496 160 496 112
WIRE 496 160 176 160
WIRE 880 160 880 32
WIRE 880 160 496 160
WIRE 976 160 976 48
WIRE 1200 160 976 160
WIRE 368 208 368 96
WIRE 368 208 -176 208
WIRE 496 208 496 160
WIRE 976 224 976 160
WIRE 688 256 496 256
WIRE 1056 272 976 272
WIRE 64 288 64 96
WIRE 448 288 64 288
WIRE 880 304 880 160
WIRE 928 304 880 304
WIRE 1056 320 1056 272
WIRE 1056 320 976 320
WIRE 496 400 496 304
WIRE 688 448 688 256
WIRE 688 448 496 448
WIRE 368 480 368 208
WIRE 448 480 368 480
WIRE 496 560 496 496
WIRE 688 560 688 448
WIRE 688 560 496 560
WIRE 1056 560 1056 320
WIRE 1056 560 688 560
WIRE 496 656 496 560
FLAG -176 96 INPUT1
IOPIN -176 96 In
FLAG -176 208 INPUT2
IOPIN -176 208 In
FLAG 1200 160 OUTPUT
IOPIN 1200 160 Out
FLAG 624 -128 +V
IOPIN 624 -128 BiDir
FLAG 496 656 0
SYMBOL pmos4 128 16 R0
SYMATTR InstName M1
SYMATTR Value CMOSP
SYMBOL pmos4 448 16 R0
SYMATTR InstName M2
SYMATTR Value CMOSP
SYMBOL nmos4 448 208 R0
SYMATTR InstName M3
SYMATTR Value CMOSN
SYMBOL nmos4 448 400 R0
SYMATTR InstName M4
SYMATTR Value CMOSN
SYMBOL nmos4 928 224 R0
SYMATTR InstName M5
SYMATTR Value CMOSN
SYMBOL pmos4 928 -48 R0
SYMATTR InstName M6
SYMATTR Value CMOSP
TEXT 968 816 Left 2 !.MODEL CMOSN NMOS (\n+LEVEL   = 8             acm     = 3              hdif    = 0.5e-6\n+VERSION = 3.1            TNOM    = 27             TOX     = 7.7E-9\n+XJ      = 1E-7           NCH     = 2.3579E17      VTH0    = 0.5048265\n+K1      = 0.5542796      K2      = 0.0155863      K3      = 2.3475646\n+K3B     = -3.3142916     W0      = 4.145888E-5    NLX     = 1.430868E-7\n+DVT0W   = 0              DVT1W   = 0              DVT2W   = 0\n+DVT0    = -0.0150839     DVT1    = 1.51022E-3     DVT2    = 0.170688\n+U0      = 415.8570638    UA      = 5.057324E-11   UB      = 1.496793E-18\n+UC      = 2.986268E-11   VSAT    = 1.237033E5     A0      = 0.9098788\n+AGS     = 0.2120181      B0      = 1.683612E-6    B1      = 5E-6\n+KETA    = -4.011887E-4   A1      = 0              A2      = 1\n+RDSW    = 1.156967E3     PRWG    = -8.468558E-3   PRWB    = -7.678669E-3\n+WR      = 1              WINT    = 5.621821E-8    LINT    = 1.606205E-8\n+XL      = -2E-8          XW      = 0              DWG     = -6.450939E-9\n+DWB     = 6.530228E-9    VOFF    = -0.1259348     NFACTOR = 0.3344887\n+CIT     = 0              CDSC    = 1.527511E-3    CDSCD   = 0\n+CDSCB   = 0              ETA0    = 1.21138E-3     ETAB    = -1.520242E-4\n+DSUB    = 0.1259886      PCLM    = 0.8254768      PDIBLC1 = 0.4211084\n+PDIBLC2 = 6.081164E-3    PDIBLCB = -5.865856E-6   DROUT   = 0.7022263\n+PSCBE1  = 7.238634E9     PSCBE2  = 5E-10          PVAG    = 0.6261655\n+DELTA   = 0.01           MOBMOD  = 1              PRT     = 0\n+UTE     = -1.5           KT1     = -0.11          KT1L    = 0\n+KT2     = 0.022          UA1     = 4.31E-9        UB1     = -7.61E-18\n+UC1     = -5.6E-11       AT      = 3.3E4          WL      = 0\n+WLN     = 1              WW      = -1.22182E-15   WWN     = 1.137\n+WWL     = 0              LL      = 0              LLN     = 1\n+LW      = 0              LWN     = 1              LWL     = 0\n+CAPMOD  = 2              XPART   = 0.4            CGDO    = 1.96E-10\n+CGSO    = 1.96E-10       CGBO    = 0              CJ      = 8.829973E-4\n+PB      = 0.7946332      MJ      = 0.3539285      CJSW    = 2.992362E-10\n+PBSW    = 0.9890846      MJSW    = 0.1871372      PVTH0   = -0.0148617\n+PRDSW   = -114.7860236   PK2     = -5.151187E-3   WKETA   = 5.687313E-3\n+LKETA   = -0.018518       )
TEXT 1920 816 Left 2 !.MODEL CMOSP PMOS (\n+LEVEL   = 8             acm     = 3              hdif    = 0.5e-6\n+VERSION = 3.1            TNOM    = 27             TOX     = 7.7E-9\n+XJ      = 1E-7           NCH     = 8.52E16        VTH0    = -0.6897992\n+K1      = 0.4134289      K2      = -5.342989E-3   K3      = 24.8361788\n+K3B     = -1.4390847     W0      = 2.467689E-6    NLX     = 3.096223E-7\n+DVT0W   = 0              DVT1W   = 0              DVT2W   = 0\n+DVT0    = 1.3209807      DVT1    = 0.4695965      DVT2    = -8.790762E-4\n+U0      = 150.6275733    UA      = 2.016943E-10   UB      = 1.714919E-18\n+UC      = -1.36948E-11   VSAT    = 9.559222E4     A0      = 0.9871247\n+AGS     = 0.3541967      B0      = 3.188091E-6    B1      = 5E-6\n+KETA    = -0.0169877     A1      = 0              A2      = 1\n+RDSW    = 2.443009E3     PRWG    = 0.0260616      PRWB    = 0.141561\n+WR      = 1              WINT    = 5.038936E-8    LINT    = 1.650588E-9\n+XL      = -2E-8          XW      = 0              DWG     = -1.535456E-8\n+DWB     = 1.256904E-8    VOFF    = -0.15          NFACTOR = 1.5460516\n+CIT     = 0              CDSC    = 1.413317E-4    CDSCD   = 0\n+CDSCB   = 0              ETA0    = 0.3751392      ETAB    = 2.343374E-3\n+DSUB    = 0.8877574      PCLM    = 5.8638076      PDIBLC1 = 1.05224E-3\n+PDIBLC2 = 3.481753E-5    PDIBLCB = 2.37525E-3     DROUT   = 0.0277454\n+PSCBE1  = 3.013379E10    PSCBE2  = 3.608179E-8    PVAG    = 3.9564294\n+DELTA   = 0.01           MOBMOD  = 1              PRT     = 0\n+UTE     = -1.5           KT1     = -0.11          KT1L    = 0\n+KT2     = 0.022          UA1     = 4.31E-9        UB1     = -7.61E-18\n+UC1     = -5.6E-11       AT      = 3.3E4          WL      = 0\n+WLN     = 1              WW      = -5.22182E-16   WWN     = 1.125\n+WWL     = 0              LL      = 0              LLN     = 1\n+LW      = 0              LWN     = 1              LWL     = 0\n+CAPMOD  = 2              XPART   = 0.4            CGDO    = 2.307E-10\n+CGSO    = 2.307E-10      CGBO    = 0              CJ      = 1.397645E-3\n+PB      = 0.99           MJ      = 0.5574537      CJSW    = 3.665392E-10\n+PBSW    = 0.99           MJSW    = 0.3399328      PVTH0   = 0.0114364\n+PRDSW   = 52.7951169     PK2     = 9.714153E-4    WKETA   = 0.0109418\n+LKETA   = 7.702974E-3     )
TEXT 984 760 Left 2 !*MODEL difinition
