Version 4
SHEET 1 916 680
WIRE 848 -704 656 -704
WIRE 656 -592 656 -704
WIRE 848 -512 848 -624
WIRE -112 -336 -208 -336
WIRE -208 -320 -208 -336
WIRE -112 -128 -112 -336
WIRE -112 -128 -288 -128
WIRE 368 -128 -112 -128
WIRE -400 -112 -464 -112
WIRE -544 -96 -624 -96
WIRE -448 -96 -544 -96
WIRE -400 -96 -400 -112
WIRE 128 -64 -144 -64
WIRE -544 -32 -624 -32
WIRE -464 -32 -464 -112
WIRE -464 -32 -544 -32
WIRE -448 -32 -448 -96
WIRE -400 -32 -448 -32
WIRE -112 48 -112 -128
WIRE -112 48 -288 48
WIRE 368 64 368 -128
WIRE -544 80 -624 80
WIRE -400 80 -544 80
WIRE 128 96 128 -64
WIRE 256 96 128 96
WIRE 112 112 -144 112
WIRE 112 128 112 112
WIRE 256 128 112 128
WIRE -544 144 -624 144
WIRE -400 144 -544 144
WIRE 576 144 480 144
WIRE 256 160 112 160
WIRE 256 192 128 192
WIRE -112 224 -112 48
WIRE -112 224 -288 224
WIRE -544 256 -624 256
WIRE -400 256 -544 256
WIRE 112 288 112 160
WIRE 112 288 -144 288
WIRE -544 320 -624 320
WIRE -400 320 -544 320
WIRE -112 400 -112 224
WIRE -112 400 -288 400
WIRE -544 432 -624 432
WIRE -400 432 -544 432
WIRE 128 464 128 192
WIRE 128 464 -144 464
WIRE -544 496 -624 496
WIRE -400 496 -544 496
FLAG -208 -240 0
FLAG 576 144 out
FLAG -544 -96 IN_1
FLAG -704 -96 0
FLAG -544 -32 IN_2
FLAG -704 -32 0
FLAG -544 80 IN_3
FLAG -704 80 0
FLAG -544 144 IN_4
FLAG -704 144 0
FLAG -544 256 IN_5
FLAG -704 256 0
FLAG -544 320 IN_6
FLAG -704 320 0
FLAG -544 432 IN_7
FLAG -704 432 0
FLAG -544 496 IN_8
FLAG -704 496 0
FLAG 656 -512 0
FLAG 848 -512 0
FLAG 544 -512 0
FLAG 544 -672 0
SYMBOL OR4_1 384 144 R0
SYMATTR InstName X1
SYMBOL AND -288 -64 R0
SYMATTR InstName X2
SYMBOL AND -288 112 R0
SYMATTR InstName X3
SYMBOL AND -288 288 R0
SYMATTR InstName X4
SYMBOL AND -288 464 R0
SYMATTR InstName X5
SYMBOL voltage -208 -336 R0
WINDOW 123 0 0 Left 0
WINDOW 39 0 0 Left 0
WINDOW 3 24 44 Left 2
SYMATTR Value {Vol}
SYMATTR InstName E+
SYMBOL voltage -608 -96 R90
WINDOW 0 -32 56 VBottom 2
WINDOW 3 32 56 VTop 2
WINDOW 123 0 0 Left 0
WINDOW 39 0 0 Left 0
SYMATTR InstName V1
SYMATTR Value ""
SYMBOL voltage -608 -32 R90
WINDOW 0 -32 56 VBottom 2
WINDOW 3 32 56 VTop 2
WINDOW 123 0 0 Left 0
WINDOW 39 0 0 Left 0
SYMATTR InstName V2
SYMATTR Value {Vol}
SYMBOL voltage -608 80 R90
WINDOW 0 -32 56 VBottom 2
WINDOW 3 32 56 VTop 2
WINDOW 123 0 0 Left 0
WINDOW 39 0 0 Left 0
SYMATTR InstName V3
SYMATTR Value 0
SYMBOL voltage -608 144 R90
WINDOW 0 -32 56 VBottom 2
WINDOW 3 32 56 VTop 2
WINDOW 123 0 0 Left 0
WINDOW 39 0 0 Left 0
SYMATTR InstName V4
SYMATTR Value 0
SYMBOL voltage -608 256 R90
WINDOW 0 -32 56 VBottom 2
WINDOW 3 32 56 VTop 2
WINDOW 123 0 0 Left 0
WINDOW 39 0 0 Left 0
SYMATTR InstName V5
SYMATTR Value 0
SYMBOL voltage -608 320 R90
WINDOW 0 -32 56 VBottom 2
WINDOW 3 32 56 VTop 2
WINDOW 123 0 0 Left 0
WINDOW 39 0 0 Left 0
SYMATTR InstName V6
SYMATTR Value 0
SYMBOL voltage -608 432 R90
WINDOW 0 -32 56 VBottom 2
WINDOW 3 32 56 VTop 2
WINDOW 123 0 0 Left 0
WINDOW 39 0 0 Left 0
SYMATTR InstName V7
SYMATTR Value 0
SYMBOL voltage -608 496 R90
WINDOW 0 -32 56 VBottom 2
WINDOW 3 32 56 VTop 2
WINDOW 123 0 0 Left 0
WINDOW 39 0 0 Left 0
SYMATTR InstName V8
SYMATTR Value 0
SYMBOL voltage 656 -608 R0
WINDOW 123 0 0 Left 0
WINDOW 39 0 0 Left 0
SYMATTR InstName V9
SYMATTR Value {PS * 1000000}
SYMBOL res 832 -720 R0
SYMATTR InstName R1
SYMATTR Value 100
SYMBOL voltage 544 -608 R0
WINDOW 123 0 0 Left 0
WINDOW 39 0 0 Left 0
SYMATTR InstName V10
SYMATTR Value {PD*1000000}
SYMBOL res 528 -688 R0
SYMATTR InstName R2
SYMATTR Value 100
TEXT -928 -456 Left 2 !.param GenT=0.0000001 Vol=2.5 ViewV=0.1 None=0.00000000001
TEXT -920 -416 Left 2 !.dc V1 0 {Vol} {{Vol}/20000}
TEXT 240 -792 Left 2 !.include tran_param.inc
