Version 4
SHEET 1 880 680
WIRE -112 -336 -208 -336
WIRE -208 -320 -208 -336
WIRE -112 -128 -112 -336
WIRE -112 -128 -288 -128
WIRE 368 -128 -112 -128
WIRE -400 -96 -624 -96
WIRE -624 -80 -624 -96
WIRE 128 -64 -144 -64
WIRE -400 -32 -496 -32
WIRE -496 -16 -496 -32
WIRE -704 16 -928 16
WIRE -928 48 -928 16
WIRE -112 48 -112 -128
WIRE -112 48 -288 48
WIRE -736 64 -832 64
WIRE 368 64 368 -128
WIRE -832 96 -832 64
WIRE -704 96 -704 16
WIRE -400 96 -400 80
WIRE -400 96 -704 96
WIRE 128 96 128 -64
WIRE 256 96 128 96
WIRE 112 112 -144 112
WIRE 112 128 112 112
WIRE 256 128 112 128
WIRE -736 144 -736 64
WIRE -400 144 -736 144
WIRE 576 144 480 144
WIRE 256 160 112 160
WIRE 256 192 128 192
WIRE -432 208 -640 208
WIRE -640 224 -640 208
WIRE -112 224 -112 48
WIRE -112 224 -288 224
WIRE -432 256 -432 208
WIRE -400 256 -432 256
WIRE -432 272 -496 272
WIRE 112 288 112 160
WIRE 112 288 -144 288
WIRE -496 304 -496 272
WIRE -432 320 -432 272
WIRE -400 320 -432 320
WIRE -816 400 -896 400
WIRE -112 400 -112 224
WIRE -112 400 -288 400
WIRE -896 432 -896 400
WIRE -816 432 -816 400
WIRE -400 432 -816 432
WIRE -656 448 -816 448
WIRE -816 464 -816 448
WIRE 128 464 128 192
WIRE 128 464 -144 464
WIRE -656 496 -656 448
WIRE -400 496 -656 496
FLAG -208 -240 0
FLAG -496 384 0
FLAG -640 304 0
FLAG -832 176 0
FLAG -928 128 0
FLAG -624 0 0
FLAG -496 64 0
FLAG -896 512 0
FLAG -816 544 0
FLAG 576 144 out
SYMBOL OR4_1 384 144 R0
SYMATTR InstName X1
SYMBOL AND -288 -64 R0
SYMATTR InstName X2
SYMBOL AND -288 112 R0
SYMATTR InstName X3
SYMBOL AND -288 288 R0
SYMATTR InstName X4
SYMBOL AND -288 464 R0
SYMATTR InstName X5
SYMBOL voltage -208 -336 R0
WINDOW 123 0 0 Left 0
WINDOW 39 0 0 Left 0
SYMATTR InstName V1
SYMATTR Value 5
SYMBOL voltage -624 -96 R0
WINDOW 123 0 0 Left 0
WINDOW 39 0 0 Left 0
SYMATTR InstName V2
SYMATTR Value PULSE(0 3 0.0000001 0.0000001 0.0000001 1 2)
SYMBOL voltage -496 -32 R0
WINDOW 123 0 0 Left 0
WINDOW 39 0 0 Left 0
SYMATTR InstName V3
SYMATTR Value PULSE(0 3.25 0.0000001 0.0000001 0.0000001 2 4)
SYMBOL voltage -928 32 R0
WINDOW 123 0 0 Left 0
WINDOW 39 0 0 Left 0
SYMATTR InstName V4
SYMATTR Value PULSE(0 3.5 0.0000001 0.0000001 0.0000001 4 8)
SYMBOL voltage -832 80 R0
WINDOW 123 0 0 Left 0
WINDOW 39 0 0 Left 0
SYMATTR InstName V5
SYMATTR Value PULSE(0 3.75 0.0000001 0.0000001 0.0000001 8 16)
SYMBOL voltage -640 208 R0
WINDOW 123 0 0 Left 0
WINDOW 39 0 0 Left 0
SYMATTR InstName V6
SYMATTR Value PULSE(0 4 0.0000001 0.0000001 0.0000001 16 32)
SYMBOL voltage -496 288 R0
WINDOW 123 0 0 Left 0
WINDOW 39 0 0 Left 0
SYMATTR InstName V7
SYMATTR Value PULSE(0 4.25 0.0000001 0.0000001 0.0000001 32 64)
SYMBOL voltage -896 416 R0
WINDOW 123 0 0 Left 0
WINDOW 39 0 0 Left 0
SYMATTR InstName V8
SYMATTR Value PULSE(0 4.5 0.0000001 0.0000001 0.0000001 64 128)
SYMBOL voltage -816 448 R0
WINDOW 123 0 0 Left 0
WINDOW 39 0 0 Left 0
SYMATTR InstName V9
SYMATTR Value PULSE(0 4.75 0.0000001 0.0000001 0.0000001 128 256)
TEXT -872 -264 Left 2 !.param TR=0.00000001 TF=0.00000001
TEXT -962 568 Left 2 !.tran 256
