Version 4
SHEET 1 880 1200
WIRE 192 352 192 128
WIRE -272 384 -320 384
WIRE 80 384 -272 384
WIRE 80 416 -160 416
WIRE 432 432 304 432
WIRE 448 432 432 432
WIRE -160 448 -160 416
WIRE -160 448 -192 448
WIRE 80 448 -112 448
WIRE 80 480 -64 480
WIRE -288 512 -320 512
WIRE -112 512 -112 448
WIRE -112 512 -288 512
WIRE -160 576 -192 576
WIRE -64 576 -64 480
WIRE -64 576 -160 576
FLAG -272 448 0
FLAG -400 384 0
FLAG -272 384 IN1
FLAG -160 448 IN2
FLAG 192 48 0
FLAG -272 576 0
FLAG -400 512 0
FLAG -288 512 IN3
FLAG -160 576 IN4
FLAG 432 432 OUT
SYMBOL voltage -304 384 R90
WINDOW 123 0 0 Left 0
WINDOW 39 0 0 Left 0
WINDOW 3 24 96 Invisible 2
SYMATTR Value PULSE({Vol} 0 {None} {None} {None} {GenT} {2*GenT})
SYMATTR InstName V1
SYMBOL voltage -176 448 R90
WINDOW 123 0 0 Left 0
WINDOW 39 0 0 Left 0
WINDOW 3 24 96 Invisible 2
SYMATTR Value PULSE({Vol} 0 {None} {None} {None} {GenT * 2} {4*GenT})
SYMATTR InstName V2
SYMBOL voltage 192 144 R180
WINDOW 123 0 0 Left 0
WINDOW 39 0 0 Left 0
SYMATTR InstName V3
SYMATTR Value {Vol}
SYMBOL OR4_1 208 432 R0
SYMATTR InstName X1
SYMBOL voltage -304 512 R90
WINDOW 123 0 0 Left 0
WINDOW 39 0 0 Left 0
WINDOW 3 24 96 Invisible 2
SYMATTR Value PULSE({Vol} 0 {None} {None} {None} {4*GenT} {8*GenT})
SYMATTR InstName V4
SYMBOL voltage -176 576 R90
WINDOW 123 0 0 Left 0
WINDOW 39 0 0 Left 0
WINDOW 3 24 96 Invisible 2
SYMATTR Value PULSE({Vol} 0 {None} {None} {None} {GenT * 8} {16*GenT})
SYMATTR InstName V5
TEXT -552 -8 Left 2 !.tran {GenT* 16}
TEXT -552 -40 Left 2 !.param GenT=0.0000001 Vol=2.5 ViewV=0.1 None=0.00000000001
