Version 4
SHEET 1 880 680
WIRE 96 -96 -48 -96
WIRE -48 -80 -48 -96
WIRE -256 16 -416 16
WIRE -416 80 -416 16
WIRE -256 112 -256 16
WIRE 48 112 -256 112
WIRE 16 176 -256 176
WIRE -256 224 -256 176
WIRE -256 224 -416 224
WIRE -416 240 -416 224
WIRE 96 352 96 -96
WIRE 192 352 96 352
WIRE 48 384 48 112
WIRE 80 384 48 384
WIRE 512 416 336 416
WIRE 528 416 512 416
WIRE 16 448 16 176
WIRE 80 448 16 448
FLAG -416 320 0
FLAG -416 160 0
FLAG -48 0 0
FLAG 512 416 OUTPUT
SYMBOL voltage -416 64 R0
WINDOW 123 0 0 Left 0
WINDOW 39 0 0 Left 0
SYMATTR InstName V1
SYMATTR Value PULSE(3 0 0.000001 0.00000001 0.00000001 1 2)
SYMBOL voltage -416 224 R0
WINDOW 123 0 0 Left 0
WINDOW 39 0 0 Left 0
SYMATTR InstName V2
SYMATTR Value PULSE(4 0 0.5 0.00000001 0.00000001 1 2)
SYMBOL voltage -48 -96 R0
WINDOW 123 0 0 Left 0
WINDOW 39 0 0 Left 0
SYMATTR InstName V3
SYMATTR Value 5
SYMBOL AND 192 416 R0
SYMATTR InstName X2
TEXT -450 344 Left 2 !.tran 10
