Version 4
SHEET 1 880 680
WIRE 272 -96 224 -96
WIRE 224 -64 224 -96
WIRE 272 80 272 -96
WIRE 160 112 -320 112
WIRE 160 144 -256 144
WIRE 496 160 384 160
WIRE 160 176 -176 176
WIRE -176 192 -176 176
WIRE 160 208 -96 208
WIRE -96 224 -96 208
FLAG 224 16 0
FLAG 496 160 out
FLAG -320 192 0
FLAG -256 224 0
FLAG -176 272 0
FLAG -96 304 0
SYMBOL OR4_1 288 160 R0
SYMATTR InstName X1
SYMBOL voltage 224 -80 R0
WINDOW 123 0 0 Left 0
WINDOW 39 0 0 Left 0
SYMATTR InstName V1
SYMATTR Value 5
SYMBOL voltage -320 96 R0
WINDOW 123 0 0 Left 0
WINDOW 39 0 0 Left 0
SYMATTR InstName V2
SYMATTR Value PULSE(3 0 0.0000001 0.00000001 0.00000001 1 2)
SYMBOL voltage -256 128 R0
WINDOW 123 0 0 Left 0
WINDOW 39 0 0 Left 0
SYMATTR InstName V3
SYMATTR Value PULSE(3.25 0 0.25 0.00000001 0.00000001 1 2)
SYMBOL voltage -176 176 R0
WINDOW 123 0 0 Left 0
WINDOW 39 0 0 Left 0
SYMATTR InstName V4
SYMATTR Value PULSE(3.5 0 0.5 0.00000001 0.00000001 1 2)
SYMBOL voltage -96 208 R0
WINDOW 123 0 0 Left 0
WINDOW 39 0 0 Left 0
SYMATTR InstName V5
SYMATTR Value PULSE(3.75 0 0.75 0.00000001 0.00000001 1 2)
TEXT -354 328 Left 2 !.tran 5
