Version 4
SHEET 1 964 680
WIRE -112 -336 -208 -336
WIRE -208 -320 -208 -336
WIRE -112 -128 -112 -336
WIRE -112 -128 -288 -128
WIRE 368 -128 -112 -128
WIRE -544 -96 -624 -96
WIRE -400 -96 -544 -96
WIRE -16 -64 -144 -64
WIRE 128 -64 -16 -64
WIRE -112 48 -112 -128
WIRE -112 48 -288 48
WIRE 368 64 368 -128
WIRE -400 80 -432 80
WIRE 128 96 128 -64
WIRE 256 96 128 96
WIRE 112 112 -144 112
WIRE 112 128 112 112
WIRE 256 128 112 128
WIRE -432 144 -432 80
WIRE -400 144 -432 144
WIRE 576 144 480 144
WIRE 256 160 112 160
WIRE 256 192 128 192
WIRE -112 224 -112 48
WIRE -112 224 -288 224
WIRE -432 256 -432 144
WIRE -400 256 -432 256
WIRE 112 288 112 160
WIRE 112 288 -144 288
WIRE -432 320 -432 256
WIRE -400 320 -432 320
WIRE -112 400 -112 224
WIRE -112 400 -288 400
WIRE -432 432 -432 320
WIRE -400 432 -432 432
WIRE 128 464 128 192
WIRE 128 464 -144 464
WIRE -432 496 -432 432
WIRE -400 496 -432 496
WIRE -432 544 -432 496
FLAG -208 -240 0
FLAG 576 144 out
FLAG -544 -96 IN
FLAG -704 -96 0
FLAG -480 -32 0
FLAG -432 544 0
FLAG -16 -64 AND_OUT
SYMBOL OR4_1 384 144 R0
SYMATTR InstName X1
SYMBOL AND -288 -64 R0
SYMATTR InstName X2
SYMBOL AND -288 112 R0
SYMATTR InstName X3
SYMBOL AND -288 288 R0
SYMATTR InstName X4
SYMBOL AND -288 464 R0
SYMATTR InstName X5
SYMBOL voltage -208 -336 R0
WINDOW 123 0 0 Left 0
WINDOW 39 0 0 Left 0
WINDOW 3 24 44 Left 2
SYMATTR Value {Vol}
SYMATTR InstName E+
SYMBOL voltage -608 -96 R90
WINDOW 0 -32 56 VBottom 2
WINDOW 3 32 56 VTop 2
WINDOW 123 0 0 Left 0
WINDOW 39 0 0 Left 0
SYMATTR InstName V1
SYMATTR Value ""
SYMBOL voltage -384 -32 R90
WINDOW 0 -32 56 VBottom 2
WINDOW 3 32 56 VTop 2
WINDOW 123 0 0 Left 0
WINDOW 39 0 0 Left 0
SYMATTR InstName V2
SYMATTR Value {Vol}
TEXT -272 -448 Left 2 !.dc V1 0 {Vol} {{Vol}/20000}
TEXT -272 -488 Left 2 !.include tran_param.inc
