Version 4
SHEET 1 880 1200
WIRE 192 352 192 128
WIRE -16 384 -320 384
WIRE 80 384 -16 384
WIRE 512 416 336 416
WIRE 528 416 512 416
WIRE -16 448 -192 448
WIRE 80 448 -16 448
FLAG -272 448 0
FLAG -400 384 0
FLAG 512 416 OUTPUT
FLAG -16 384 IN1
FLAG -16 448 IN2
FLAG 192 48 0
SYMBOL voltage -304 384 R90
WINDOW 123 0 0 Left 0
WINDOW 39 0 0 Left 0
WINDOW 3 24 96 Invisible 2
SYMATTR InstName V1
SYMATTR Value PULSE({Vol} 0 {None} {None} {None} {GenT} {2*GenT})
SYMBOL voltage -176 448 R90
WINDOW 123 0 0 Left 0
WINDOW 39 0 0 Left 0
WINDOW 3 24 96 Invisible 2
SYMATTR InstName V2
SYMATTR Value PULSE({Vol} 0 {None} {None} {None} {GenT * 2} {4*GenT})
SYMBOL voltage 192 144 R180
WINDOW 123 0 0 Left 0
WINDOW 39 0 0 Left 0
SYMATTR InstName V3
SYMATTR Value {Vol}
SYMBOL AND 192 416 R0
SYMATTR InstName X2
TEXT -552 -8 Left 2 !.tran {GenT* 4}
TEXT -552 -40 Left 2 !.param GenT=0.0000001 Vol=2.5 ViewV=0.1 None=0.00000000001
