Version 4
SHEET 1 1204 680
WIRE -336 -144 -464 -144
WIRE -64 -144 -336 -144
WIRE 80 -144 -64 -144
WIRE 192 -144 80 -144
WIRE 256 -144 192 -144
WIRE 448 -144 256 -144
WIRE 592 -144 448 -144
WIRE 704 -144 592 -144
WIRE 960 -144 704 -144
WIRE -336 -128 -336 -144
WIRE 192 -112 192 -144
WIRE -464 -96 -464 -144
WIRE -448 -96 -464 -96
WIRE -64 -96 -64 -144
WIRE 704 -96 704 -144
WIRE 80 -80 80 -144
WIRE 448 -80 448 -144
WIRE -176 -64 -192 -64
WIRE -160 -64 -176 -64
WIRE 592 -64 592 -144
WIRE 960 -64 960 -144
WIRE -448 -32 -480 -32
WIRE -176 -32 -192 -32
WIRE 64 -16 48 -16
WIRE 80 -16 64 -16
WIRE 336 -16 320 -16
WIRE -192 0 -192 -32
WIRE -176 0 -192 0
WIRE 592 0 560 0
WIRE 848 0 832 0
WIRE 320 16 320 -16
WIRE 336 16 320 16
WIRE 1200 16 1072 16
WIRE -192 32 -192 0
WIRE -176 32 -192 32
WIRE 832 32 832 0
WIRE 848 32 832 32
WIRE 320 48 320 16
WIRE 336 48 320 48
WIRE 832 64 832 32
WIRE 848 64 832 64
FLAG -560 -32 0
FLAG -192 32 0
FLAG 320 48 0
FLAG 832 64 0
FLAG 64 48 0
FLAG 592 64 0
FLAG 64 -16 IN
FLAG 256 -224 0
FLAG 592 0 OUT
SYMBOL AND -336 -64 R0
SYMATTR InstName X2
SYMBOL voltage -464 -32 R90
WINDOW 0 -32 56 VBottom 2
WINDOW 3 -4 56 Invisible 2
WINDOW 123 0 0 Left 0
WINDOW 39 0 0 Left 0
SYMATTR InstName V1
SYMATTR Value PULSE(0 {Vol} {GenT} {None} {None} {GenT} {{GenT}*2})
SYMBOL OR4_1 -48 -16 R0
SYMATTR InstName X1
SYMBOL AND 192 -48 R0
SYMATTR InstName X3
SYMBOL OR4_1 464 0 R0
SYMATTR InstName X4
SYMBOL AND 704 -32 R0
SYMATTR InstName X5
SYMBOL OR4_1 976 16 R0
SYMATTR InstName X6
SYMBOL cap 48 -16 R0
SYMATTR InstName C1
SYMATTR Value {Cm}
SYMBOL cap 576 0 R0
WINDOW 0 30 28 Left 2
SYMATTR InstName C2
SYMATTR Value {Cm}
SYMBOL voltage 256 -128 R180
WINDOW 123 0 0 Left 0
WINDOW 39 0 0 Left 0
SYMATTR InstName V2
SYMATTR Value {vol}
TEXT -272 -448 Left 2 !.tran {6*2*GenT}
TEXT -272 -488 Left 2 !.include tran_param.inc
TEXT -272 -520 Left 2 !.param Cm=10p GenT={GenTmin}
