Version 4
SHEET 1 968 680
WIRE 128 80 16 80
WIRE 256 80 256 -48
WIRE 256 80 128 80
WIRE 656 80 256 80
WIRE 128 112 128 80
WIRE 16 144 16 80
WIRE 656 144 656 80
WIRE 544 176 272 176
WIRE 16 208 -128 208
WIRE 544 208 464 208
WIRE 912 224 768 224
WIRE 464 240 464 208
WIRE 544 240 464 240
WIRE 464 272 464 240
WIRE 544 272 464 272
WIRE 464 320 464 272
FLAG -208 208 0
FLAG 256 -128 0
FLAG 464 320 0
FLAG 912 224 out
SYMBOL AND 128 176 R0
SYMATTR InstName X1
SYMBOL OR4_1 672 224 R0
SYMATTR InstName X2
SYMBOL voltage -112 208 R90
WINDOW 0 -32 56 VBottom 2
WINDOW 3 32 56 VTop 2
WINDOW 123 0 0 Left 0
WINDOW 39 0 0 Left 0
SYMATTR InstName V1
SYMATTR Value ""
SYMBOL voltage 256 -32 R180
WINDOW 0 24 96 Left 2
WINDOW 3 24 16 Left 2
WINDOW 123 0 0 Left 0
WINDOW 39 0 0 Left 0
SYMATTR InstName V2
SYMATTR Value 2.5
TEXT -228 344 Left 2 !.dc V1 0 2.5 0.005
