Version 4
SHEET 1 2612 2100
WIRE 384 -144 384 -304
WIRE 384 -144 256 -144
WIRE 256 -48 256 -144
WIRE 384 0 384 -144
WIRE 384 0 256 0
WIRE 192 32 -336 32
WIRE 208 32 192 32
WIRE 256 96 256 48
WIRE 384 144 384 0
WIRE 384 144 256 144
WIRE 48 176 -336 176
WIRE 208 176 48 176
WIRE 256 240 256 192
WIRE 384 288 384 144
WIRE 384 288 256 288
WIRE 384 304 384 288
WIRE 720 304 384 304
WIRE 752 304 720 304
WIRE -96 320 -336 320
WIRE 208 320 -96 320
WIRE 720 336 720 304
WIRE 256 384 256 336
WIRE 752 384 752 304
WIRE 752 384 720 384
WIRE 672 416 592 416
WIRE 384 432 384 304
WIRE 384 432 256 432
WIRE -240 464 -336 464
WIRE 208 464 -240 464
WIRE -32 512 -176 512
WIRE 112 512 -32 512
WIRE 256 512 256 480
WIRE 256 512 112 512
WIRE 592 512 592 416
WIRE 592 512 256 512
WIRE 720 512 720 432
WIRE 1200 512 720 512
WIRE -176 544 -176 512
WIRE -32 544 -32 512
WIRE 112 544 112 512
WIRE 256 544 256 512
WIRE 720 576 720 512
WIRE -160 592 -176 592
WIRE -16 592 -32 592
WIRE 128 592 112 592
WIRE 272 592 256 592
WIRE -240 624 -240 464
WIRE -224 624 -240 624
WIRE -96 624 -96 320
WIRE -80 624 -96 624
WIRE 48 624 48 176
WIRE 64 624 48 624
WIRE 192 624 192 32
WIRE 208 624 192 624
WIRE 752 624 720 624
WIRE 592 656 592 512
WIRE 672 656 592 656
WIRE -176 688 -176 640
WIRE -160 688 -160 592
WIRE -160 688 -176 688
WIRE -32 688 -32 640
WIRE -32 688 -160 688
WIRE -16 688 -16 592
WIRE -16 688 -32 688
WIRE 112 688 112 640
WIRE 112 688 -16 688
WIRE 128 688 128 592
WIRE 128 688 112 688
WIRE 256 688 256 640
WIRE 256 688 128 688
WIRE 272 688 272 592
WIRE 272 688 256 688
WIRE 288 688 272 688
WIRE 720 688 720 672
WIRE 720 688 288 688
WIRE 752 688 752 624
WIRE 752 688 720 688
FLAG 288 688 0
FLAG -336 32 INPUT1
IOPIN -336 32 In
FLAG -336 176 INPUT2
IOPIN -336 176 In
FLAG -336 320 INPUT3
IOPIN -336 320 In
FLAG -336 464 INPUT4
IOPIN -336 464 In
FLAG 384 -304 +V
IOPIN 384 -304 BiDir
FLAG 1200 512 OUTPUT
IOPIN 1200 512 Out
SYMBOL pmos4 208 -48 R0
SYMATTR InstName M1
SYMATTR Value CMOSP
SYMATTR Value2 l={LChan} w={WP}
SYMBOL pmos4 208 96 R0
SYMATTR InstName M2
SYMATTR Value CMOSP
SYMATTR Value2 l={LChan} w={WP}
SYMBOL pmos4 208 240 R0
SYMATTR InstName M3
SYMATTR Value CMOSP
SYMATTR Value2 l={LChan} w={WP}
SYMBOL pmos4 208 384 R0
SYMATTR InstName M4
SYMATTR Value CMOSP
SYMATTR Value2 l={LChan} w={WP}
SYMBOL pmos4 672 336 R0
SYMATTR InstName M9
SYMATTR Value CMOSP
SYMATTR Value2 l={LChan} w={WP}
SYMBOL nmos4 -224 544 R0
SYMATTR InstName M11
SYMATTR Value CMOSP
SYMATTR Value2 l={LChan} w={WN}
SYMBOL nmos4 -80 544 R0
SYMATTR InstName M5
SYMATTR Value CMOSP
SYMATTR Value2 l={LChan} w={WN}
SYMBOL nmos4 64 544 R0
SYMATTR InstName M6
SYMATTR Value CMOSP
SYMATTR Value2 l={LChan} w={WN}
SYMBOL nmos4 208 544 R0
SYMATTR InstName M7
SYMATTR Value CMOSP
SYMATTR Value2 l={LChan} w={WN}
SYMBOL nmos4 672 576 R0
SYMATTR InstName M8
SYMATTR Value CMOSP
SYMATTR Value2 l={LChan} w={WN}
TEXT -400 -432 Left 2 !.param LChan=0.25u WN=2u WP=4.66u
TEXT -400 -472 Left 2 !.include students_0p25um_mosfet_model.inc
