Version 4
SHEET 1 2612 2100
WIRE 384 -144 384 -304
WIRE 384 -144 256 -144
WIRE 256 -48 256 -144
WIRE 384 0 384 -144
WIRE 384 0 256 0
WIRE 192 32 -336 32
WIRE 208 32 192 32
WIRE 256 96 256 48
WIRE 384 144 384 0
WIRE 384 144 256 144
WIRE 48 176 -336 176
WIRE 208 176 48 176
WIRE 256 240 256 192
WIRE 384 288 384 144
WIRE 384 288 256 288
WIRE 384 304 384 288
WIRE 720 304 384 304
WIRE 752 304 720 304
WIRE -96 320 -336 320
WIRE 208 320 -96 320
WIRE 720 336 720 304
WIRE 256 384 256 336
WIRE 752 384 752 304
WIRE 752 384 720 384
WIRE 672 416 592 416
WIRE 384 432 384 304
WIRE 384 432 256 432
WIRE -240 464 -336 464
WIRE 208 464 -240 464
WIRE -32 512 -176 512
WIRE 112 512 -32 512
WIRE 256 512 256 480
WIRE 256 512 112 512
WIRE 592 512 592 416
WIRE 592 512 256 512
WIRE 720 512 720 432
WIRE 1200 512 720 512
WIRE -176 544 -176 512
WIRE -32 544 -32 512
WIRE 112 544 112 512
WIRE 256 544 256 512
WIRE 720 576 720 512
WIRE -240 624 -240 464
WIRE -224 624 -240 624
WIRE -96 624 -96 320
WIRE -80 624 -96 624
WIRE 48 624 48 176
WIRE 64 624 48 624
WIRE 192 624 192 32
WIRE 208 624 192 624
WIRE 752 624 720 624
WIRE 592 656 592 512
WIRE 672 656 592 656
WIRE -176 688 -176 640
WIRE -32 688 -32 640
WIRE -32 688 -176 688
WIRE 112 688 112 640
WIRE 112 688 -32 688
WIRE 256 688 256 640
WIRE 256 688 112 688
WIRE 288 688 256 688
WIRE 720 688 720 672
WIRE 720 688 288 688
WIRE 752 688 752 624
WIRE 752 688 720 688
FLAG 288 688 0
FLAG -336 32 INPUT1
IOPIN -336 32 In
FLAG -336 176 INPUT2
IOPIN -336 176 In
FLAG -336 320 INPUT3
IOPIN -336 320 In
FLAG -336 464 INPUT4
IOPIN -336 464 In
FLAG 384 -304 +V
IOPIN 384 -304 BiDir
FLAG 1200 512 OUTPUT
IOPIN 1200 512 Out
SYMBOL pmos4 208 -48 R0
SYMATTR InstName M1
SYMBOL pmos4 208 96 R0
SYMATTR InstName M2
SYMBOL pmos4 208 240 R0
SYMATTR InstName M3
SYMBOL pmos4 208 384 R0
SYMATTR InstName M4
SYMBOL nmos 208 544 R0
SYMATTR InstName M5
SYMBOL nmos 64 544 R0
SYMATTR InstName M6
SYMBOL nmos -80 544 R0
SYMATTR InstName M7
SYMBOL nmos -224 544 R0
SYMATTR InstName M8
SYMBOL pmos4 672 336 R0
SYMATTR InstName M9
SYMBOL nmos4 672 576 R0
SYMATTR InstName M10
TEXT -168 1160 Left 2 !.MODEL CMOSN NMOS (\n+LEVEL   = 8             acm     = 3              hdif    = 0.5e-6\n+VERSION = 3.1            TNOM    = 27             TOX     = 7.7E-9\n+XJ      = 1E-7           NCH     = 2.3579E17      VTH0    = 0.5048265\n+K1      = 0.5542796      K2      = 0.0155863      K3      = 2.3475646\n+K3B     = -3.3142916     W0      = 4.145888E-5    NLX     = 1.430868E-7\n+DVT0W   = 0              DVT1W   = 0              DVT2W   = 0\n+DVT0    = -0.0150839     DVT1    = 1.51022E-3     DVT2    = 0.170688\n+U0      = 415.8570638    UA      = 5.057324E-11   UB      = 1.496793E-18\n+UC      = 2.986268E-11   VSAT    = 1.237033E5     A0      = 0.9098788\n+AGS     = 0.2120181      B0      = 1.683612E-6    B1      = 5E-6\n+KETA    = -4.011887E-4   A1      = 0              A2      = 1\n+RDSW    = 1.156967E3     PRWG    = -8.468558E-3   PRWB    = -7.678669E-3\n+WR      = 1              WINT    = 5.621821E-8    LINT    = 1.606205E-8\n+XL      = -2E-8          XW      = 0              DWG     = -6.450939E-9\n+DWB     = 6.530228E-9    VOFF    = -0.1259348     NFACTOR = 0.3344887\n+CIT     = 0              CDSC    = 1.527511E-3    CDSCD   = 0\n+CDSCB   = 0              ETA0    = 1.21138E-3     ETAB    = -1.520242E-4\n+DSUB    = 0.1259886      PCLM    = 0.8254768      PDIBLC1 = 0.4211084\n+PDIBLC2 = 6.081164E-3    PDIBLCB = -5.865856E-6   DROUT   = 0.7022263\n+PSCBE1  = 7.238634E9     PSCBE2  = 5E-10          PVAG    = 0.6261655\n+DELTA   = 0.01           MOBMOD  = 1              PRT     = 0\n+UTE     = -1.5           KT1     = -0.11          KT1L    = 0\n+KT2     = 0.022          UA1     = 4.31E-9        UB1     = -7.61E-18\n+UC1     = -5.6E-11       AT      = 3.3E4          WL      = 0\n+WLN     = 1              WW      = -1.22182E-15   WWN     = 1.137\n+WWL     = 0              LL      = 0              LLN     = 1\n+LW      = 0              LWN     = 1              LWL     = 0\n+CAPMOD  = 2              XPART   = 0.4            CGDO    = 1.96E-10\n+CGSO    = 1.96E-10       CGBO    = 0              CJ      = 8.829973E-4\n+PB      = 0.7946332      MJ      = 0.3539285      CJSW    = 2.992362E-10\n+PBSW    = 0.9890846      MJSW    = 0.1871372      PVTH0   = -0.0148617\n+PRDSW   = -114.7860236   PK2     = -5.151187E-3   WKETA   = 5.687313E-3\n+LKETA   = -0.018518       )
TEXT 960 1096 Left 2 !.MODEL CMOSP PMOS (\n+LEVEL   = 8             acm     = 3              hdif    = 0.5e-6\n+VERSION = 3.1            TNOM    = 27             TOX     = 7.7E-9\n+XJ      = 1E-7           NCH     = 8.52E16        VTH0    = -0.6897992\n+K1      = 0.4134289      K2      = -5.342989E-3   K3      = 24.8361788\n+K3B     = -1.4390847     W0      = 2.467689E-6    NLX     = 3.096223E-7\n+DVT0W   = 0              DVT1W   = 0              DVT2W   = 0\n+DVT0    = 1.3209807      DVT1    = 0.4695965      DVT2    = -8.790762E-4\n+U0      = 150.6275733    UA      = 2.016943E-10   UB      = 1.714919E-18\n+UC      = -1.36948E-11   VSAT    = 9.559222E4     A0      = 0.9871247\n+AGS     = 0.3541967      B0      = 3.188091E-6    B1      = 5E-6\n+KETA    = -0.0169877     A1      = 0              A2      = 1\n+RDSW    = 2.443009E3     PRWG    = 0.0260616      PRWB    = 0.141561\n+WR      = 1              WINT    = 5.038936E-8    LINT    = 1.650588E-9\n+XL      = -2E-8          XW      = 0              DWG     = -1.535456E-8\n+DWB     = 1.256904E-8    VOFF    = -0.15          NFACTOR = 1.5460516\n+CIT     = 0              CDSC    = 1.413317E-4    CDSCD   = 0\n+CDSCB   = 0              ETA0    = 0.3751392      ETAB    = 2.343374E-3\n+DSUB    = 0.8877574      PCLM    = 5.8638076      PDIBLC1 = 1.05224E-3\n+PDIBLC2 = 3.481753E-5    PDIBLCB = 2.37525E-3     DROUT   = 0.0277454\n+PSCBE1  = 3.013379E10    PSCBE2  = 3.608179E-8    PVAG    = 3.9564294\n+DELTA   = 0.01           MOBMOD  = 1              PRT     = 0\n+UTE     = -1.5           KT1     = -0.11          KT1L    = 0\n+KT2     = 0.022          UA1     = 4.31E-9        UB1     = -7.61E-18\n+UC1     = -5.6E-11       AT      = 3.3E4          WL      = 0\n+WLN     = 1              WW      = -5.22182E-16   WWN     = 1.125\n+WWL     = 0              LL      = 0              LLN     = 1\n+LW      = 0              LWN     = 1              LWL     = 0\n+CAPMOD  = 2              XPART   = 0.4            CGDO    = 2.307E-10\n+CGSO    = 2.307E-10      CGBO    = 0              CJ      = 1.397645E-3\n+PB      = 0.99           MJ      = 0.5574537      CJSW    = 3.665392E-10\n+PBSW    = 0.99           MJSW    = 0.3399328      PVTH0   = 0.0114364\n+PRDSW   = 52.7951169     PK2     = 9.714153E-4    WKETA   = 0.0109418\n+LKETA   = 7.702974E-3     )
TEXT -176 1080 Left 2 !*MODEL difinition
