Version 4
SHEET 1 1568 900
WIRE 480 64 240 64
WIRE 608 64 480 64
WIRE 720 64 608 64
WIRE 832 64 720 64
WIRE 240 80 240 64
WIRE 480 80 480 64
WIRE 608 112 608 64
WIRE 720 112 720 64
WIRE 832 112 832 64
WIRE 176 128 48 128
WIRE 48 144 48 128
WIRE 240 224 240 176
WIRE 240 224 48 224
WIRE 480 224 480 160
WIRE 480 224 240 224
WIRE 608 224 608 192
WIRE 608 224 480 224
WIRE 720 224 720 192
WIRE 720 224 608 224
WIRE 832 224 832 192
WIRE 832 224 720 224
FLAG 240 224 0
SYMBOL npn 176 80 R0
SYMATTR InstName Q1
SYMATTR Value kttk
SYMBOL voltage 480 64 R0
WINDOW 123 0 0 Left 0
WINDOW 39 0 0 Left 0
SYMATTR InstName V2
SYMATTR Value 5
SYMBOL current 608 112 R0
WINDOW 3 24 80 Invisible 0
WINDOW 123 0 0 Left 0
WINDOW 39 0 0 Left 0
SYMATTR Value TBL(0.02 0u 0.06 0.28u 0.09 0.73u 0.11 1.019u 0.15 1.69u 0.29 3.39u 0.69 3.76u 1 3.86u 1.2 3.9u 1.5 3.95u 1.75 4u 1.95 4.02u 2.23 4.08u 2.65 4.15u 3 4.19u 3.1 4.2u )
SYMATTR InstName I1
SYMBOL current 720 112 R0
WINDOW 3 24 80 Invisible 2
WINDOW 123 0 0 Left 0
WINDOW 39 0 0 Left 0
SYMATTR Value TBL(0.01 0u 0.05 0.28u 0.09 1.25u 0.28 6.15u 0.99 6.73u 1.74 6.93u )
SYMATTR InstName I2
SYMBOL current 832 112 R0
WINDOW 3 24 80 Invisible 2
WINDOW 123 0 0 Left 0
WINDOW 39 0 0 Left 0
SYMATTR Value TBL(0.01 0u 0.02 0.1124u 0.05 0.378u 0.08 1.5u 0.1 2.55u 0.13 4.16u 0.17 6.26u 0.19 7.32u 0.5 9.2u 0.58 9.25u 0.6 9.23u )
SYMATTR InstName I3
SYMBOL current 48 224 R180
WINDOW 0 24 80 Left 2
WINDOW 3 24 0 Left 2
WINDOW 123 0 0 Left 0
WINDOW 39 0 0 Left 0
SYMATTR InstName I6
SYMATTR Value 70µ
TEXT 56 -56 Left 2 !.model kttk NPN(Is = 0.03p Bf = 132 Vaf = 30 Nf = 0.94 Rb = 0.05 Rc = 0.3 re = 8.4 ikf=1m)
TEXT -56 360 Left 2 !.dc V2 0 1 0.01 I6 list 30u 50u 70u
